6
   
Si         0.00000        0.00000        0.00000
H          0.38054        0.00000        1.83136
H         -0.38038        0.00000        1.83048
H          0.02577       -1.45375       -0.16190
H         -1.27406        0.71377       -0.10782
H          1.24797        0.75810       -0.10956
